***
*** stmicro_linear.lb
***

.systemlib


.SIMULATOR SIMETRIX


****************************************************************************
*
* WARNING : please consider following remarks before usage
*
* 1) All models are a tradeoff between accuracy and complexity (ie. simulation
*    time).
*
* 2) Macromodels are not a substitute to breadboarding, they rather confirm the
*    validity of a design approach and help to select surrounding component values.
*
* 3) A macromodel emulates the NOMINAL performance of a TYPICAL device within
*    SPECIFIED OPERATING CONDITIONS (ie. temperature, supply voltage, etc.).
*    Thus the macromodel is often not as exhaustive as the datasheet, its goal
*    is to illustrate the main parameters of the product.
*
* 4) Data issued from macromodels used outside of its specified conditions
*    (Vcc, Temperature, etc) or even worse: outside of the device operating
*    conditions (Vcc, Vicm, etc) are not reliable in any way.
*
****************************************************************************
****
***  LM2904 PSpice macromodel subckt 
***
***   May 2019 
****                      
************ CONNECTIONS: 
****                  NON-INVERTING INPUT
****                    |  INVERTING INPUT
****                    |   |     POSITIVE POWER SUPPLY
****                    |   |      |      NEGATIVE POWER SUPPLY
****                    |   |      |       |     OUTPUT  
****                    |   |      |       |      |     
****                    |   |      |       |      |  
.SUBCKT LM2904   VP  VM  VCCP VCCN  VS


*#ASSOC symbol=LM2904 category="Op-amps"

*
?@@--START ENCRYPTION: "ST MICRO LIBRARY ENCRYPTION"
?@@ZZso92M/2Jhn8PfZkarLfJ6sCAGoOK4B8cDMTsOspsHU0BreZGZl/kABNUBNpADh5BpX?##
?@@+pxFZRnwtNltdt+6K4Sk9aYBAPeHeVU/U5HRzA/g+t0n6PRAL+7EamNMM+5yISnQ0az/?##
?@@Q3eZO7cYVcQBaLppcHGCaKGwfdl96uhp0k4mFJdPSV18DDdH9cFKnpQfoklemXuiHcKE?##
?@@lC/CM/RGuheE5ELg0XjyDa31jdS23Hhh/vtl3ZCTnqS9fOIMUtM5JtOaqnhUz5pnVWtQ?##
?@@ZZtB+lx1kHydwKFef0FC2WYh6O7riDtXCVed4MZBjl8NMGsNqltismBvCYS1Yq9B3I5n?##
?@@sjH/jjS0LnSXzp+A65s6KuRdNJZ0nb9uUh9YrwmCz+xZqAKXBF1EDpt/gV8ksHdKb/oV?##
?@@Z6xnqznFQGK9v2AMhMwqy8kg+I/ytr+L9p4Jv0YW3bp1JKz8khBFYhqwdkEpJBVdz97W?##
?@@+Is3uBnryBJAvXHGZ0rgFYm/go/Ncl5fLc1V2m2RzDV4GXGvi4slf3yL1GgcH2dNSlCX?##
?@@zRkC4L4vFzsndGw5voTu/zUmbhDzpnhLyKjE4zGxVYL6/u1g0p8QNBrgw9abTj1rxpOl?##
?@@asagtNQDbvJA0y0EIPt3x8mkGqQlWsCQqaOaNb3J+VyInPz7qYSIgJcBz9ZVxUQKb27l?##
?@@dzaZMXc1BtbmU5zVCzmGFPyAmI/wKhZhyfwfbLwfg4p0XDpeI5JI6A6A9J1zmEUI4orT?##
?@@9GnrV6X1ge9lwXmbjvHROWeA8U4VH7RI1n4skZpGpzoga/Gft4aycjnn+KvVmLZumyBo?##
?@@/baXcpGsQsznD/yikMivmmul0OlRDr0dx7z2Rnj8YPfKJ8Yp12Bt4NJDaSLU54CroTIy?##
?@@Co14kD6aU1p66yNaX+AyqeI8ML74bzTTcgrMEqvubgX0NYWCrZQIaC2dGyOKWMK85Ult?##
?@@szoS526uUQT0yHTcexusrBfa0Naq/xPtcTUIVSqi6TjNzAV/PTICxgQt8hi5m3daC7ga?##
?@@SKIX96ftDD/TGrZH6mgOkTdXOAxxZXCXZ3WwZKHTVJ4xJco1e2gQ/sKHL4HVKKWC6msv?##
?@@2YHoBUGAQ8Vvz4wc/oVs6lszvxxe2MQl9yXBsa1DuMX9XHZ3AZdNVh8gqwB6L5f+LAmG?##
?@@MuVzX9L6fAb0gKVYVtCeIKaxE/N76G2bDzrA+FViOjbJ7ytRBrBPYyNtrpjjkVjGmZL1?##
?@@cxNMz9bYaRIdNrBhgbCTHANy2vOPVJ0WHCWUyE0ao8UAQg5cAD++rMNnnxJzDe4CFr1M?##
?@@qNtAG8RVhedBzxE+ZDeHYlC9tdEUj4qBXLxFj7JedXTIZmeBRy7FeOgn5csHi2zdZ9Th?##
?@@0TxPQv/oLxOfb/iicg5HB3kZKGGi/zWZjXRLfyUnr0Ml1OMZ7UZIxi1RUAk4cQnWdjub?##
?@@Qm6l5RRrtdCslkNRuChH5wMcSvMmwjVVIZzSBHI2/mrvBVnMzD23T11fAgs8yroYrkla?##
?@@n46U/1OJRL+CKlqRm2oGQg8HdqxkCwNgpt5htg73ROgMTFdtAph6CDlUboFbHn75aj92?##
?@@uGVyobmmuSKx7CAxjdmgJosLc7n2TVOZQdA9XRrKuqM70h3ZoLUIBe5SEIa1dwnhSZUQ?##
?@@3aM0ZlNwcGqJFqLLmv1ezSdjq8OVOORKzZ1QwScDm12m92eiin1+W6rivwXEobAqd7jc?##
?@@gpRr/bBtSc7FMcgaW+HVTQ8YHFTC29yAf3dDfTvfWiDDpb6w2RQ+jcWAd0y3BOVytafO?##
?@@cxNMz9MD6VHVyVwes19TKbyd4cJvmrUzgDGNB7Tc6X9vvPwp6d0zVEuIjGMBKNWR9jcX?##
?@@bNfHZKn5GKSPPxl8ROX7VToYHIAdIbYSraNGqd/eEC6FAAMxC7Q+ytY0yLXspHoHOzCG?##
?@@3aM0ZjMT+Vsi5fSxEvySvmzyvimWTfVyeg9L/wn6xxFuqMHpRNdH0Bkq6Lpylxqqa5A0?##
?@@YoEI8ctzkIV3YARvqVfs+a4c6zv1kh4RBnSQqENabJmrNxF62cy5Eturce+4gLdxog8j?##
?@@szoS552zIXSaSd+p+wn2uTZ9jn6yl+FQRx8v5AlKkUTiPeheJWGDUJHbDgrrnYe5ZIPR?##
?@@EMDqomIi9m0Rf/IZKize6EsKiDnLH8I+WeKSFj9aD6iBMPky2SvzLPEffw/YO9+LKSKe?##
?@@rQag1CAPr7Y9bAk0pFFC301yOy6aCNMX/4AfVZuSOsNHBeVHjXH/XhtTPKSipwwbIdJG?##
?@@2on7XUEnmNA/okjAnNxFEnO/N8pjU8SNA3S+GlVCAC8gS+QEEXCEULRqnbVj/XjW+KqU?##
?@@Q3e4PciaKUu5xt2QbyIb46SeE5wJejmxhbI/Bs3IsvO2++DCQw1pJVlxTWFZBqPE6rGi?##
?@@fGH46tfWZxOc6m9WD5R3MtBG8MnMZiJXXuupRaF3dTSMxqjpPVrApIv68TFqcgrDRcvX?##
?@@pcEHEk6FhRAStsulWZKJ9s9tPSOsLDJtEHOQ/6Guc7zcz6HLphq4RRZUp9gIv+bbg04G?##
?@@AkjfzbOUflPYL9cC3OM8gnTRH0qv4ChT4uFTidIIFe7tpxRCWITorsFjA9Ghv9sOt0tA?##
?@@94IkYNvS/DpRW5Sicf2xbImoCCiiRIqm2eQgZ7D+tyiVO6yORr/k42nrJhIGIWggD4Fp?##
?@@PDsy02o2DlAijQqJ1qZH7KlYXBfHr7xggbBKrltNYwjlkLfSDktWfhw99QQUvLRf01go?##
?@@rQag1Hf/r+pdSHYAZGMrVOHMejLe6RoXkOrN+a0fgg7FqKif3aUvRIVLFM1ELSPB4nsO?##
?@@4s6TINmWtnEUzEB84iZXQB5eClPKYNBAsNJ3k8zZ/2e1hu0v8AIJ+fzRBl5HUBX6uhXu?##
?@@Y4obSb9DdYCiolq6+T+G+AwSd9q32ByRZ6SUI30zp29GJwD+n9pOHK7zzJCeNPhktTV6?##
?@@bNfHZLFFlYs3H2qopzGLi2UqNQUXVt0guuI3b3NBZKiUXx+pGqpwK401QWbI3K+gbueI?##
?@@AT/MdWbkoE7H2tBqrcvFVpJ+NRBWh1/QNcE/Loxtl75onT/ycq3JMf5kcSAR3oYYln3S?##
?@@psoaanGsmXlLkHt1/4wiCSP+V++pLF0gLx9I9nrO/Aa6JD9w1sjpW/GoikU4ykBPYQ8r?##
?@@A1DyJshiQXzxFpeSoppFO16L72rlCGf0slxIlHnNqbqbW0lvsrdpd65qz28MJS3j7BqM?##
?@@fGH46ru9nZIH63E2gybKDkwu9YvsSUEBplQYjPOQvy9MHyI0QD+gbDmk87T2ap1FtNyu?##
?@@yfe2f0BK16HMIrrLP8gAFsiysmFsScDro5VftWeB1ATinLnXj3peTXci42KJDuKU/TOu?##
?@@/r+qymwElkOFNdd7TLIOGrend/JpXTKoI5OdgPEDOCknkUUN9MHjrpTOJVFcX4FsG4Ei?##
?@@37RaFyNHQDD4nX5JfhPPu/mrZyBUx5yu8Uz6dWjQA64Z0/jHUP/VKiq9KrghG/MFQtv+?##
?@@LLEBTXLbuKl6GCmWE0AoG4+z/ah5hdWlAy0pZXcdauJ79l6krS81c59MZiaIAnRHsP3A?##
?@@IVIvgSiJSC5rKoWBKyW2p624Hj/NVA9jpyRsmXCNhuZNSdVZgNRRvGpktuE1yjy4rGtB?##
?@@Jn2OO7hQyUrr+BZhkE0a4YtgOR3N//sazSs8JsdZuO6XPbdOn01Y6A1sXAoh8A3a1r8X?##
?@@v6H3C6/zsOtuW2W4xWkQ4t4Gtka5eXG2CuNVoW7nAtpf6S/jjZg7/BvlheLHZovWNUNd?##
?@@MNNNrvwyZKw8c1LOuZxUyu3AohQ82eCzy1bsGzMXDxdlosOprzWlT+27eBwzsLY42g6a?##
?@@QWaSjW2gH9YNddG2/StV5wn1/zcW/o0HvGp3Mmw3FIswnb7n8pXCyifIICshy0g5xf8s?##
?@@4s6TIJRAXYrPPyj282eggh/LlaJqie6bPUmR7bC7U4qPYZdkI5P1IUU2gGnxl9mnn/+b?##
?@@t1xeSDWXQy4M2FI8VMVlnP61k+YgEywo0rq64h4jE6V4DT9laCOq8L0Tq8GoTZVoOGnC?##
?@@kA120sHArg4epS8wtkXVtA20u3xCH3Wncu2N259ryU4Wp9Rcg8c1NI4bQSikQwQsZ9/b?##
?@@IVIvgep6jxBmsqYwLaamuVTfM30Ut4eCzdzBS+D4Nv7QcRR0vW1b2BCHfTPw5MQB8fN/?##
?@@FvRdtSitaKy7IuESjvKnI2ydkjvYIbCgEikOrNWRwdE6hJCabJQL9DcRCr8yjfNeUVfM?##
?@@n46U/2jcSxcEPWlmT0tN81jB/w0/hNq023J7VNJBybo5l7LJx73Tq7hIlCNxDr8ROa+T?##
?@@3JohDg/OnmzX5c0VbvBtUF0FNPDJaz93Hi/RmeS2JYDD4E+EH31JCkBVbLPCo/6rp/Ag?##
?@@dSVygKoZPsDYqCE/iLUO6XzpeWR7IUIRfoJBl+oC2IC7tzn17251zQVXXHDO9KayEPlg?##
?@@ziIWOddqypvE3cwjJWgwvv7csj8vjfbpqvjegytRpTvAoyKANpp543++HHY9z5Qh6r0p?##
?@@n46U/7ZOE7ernmeLH/bnW6Tz3aAXPvvHqcMYjJPa5+0GY6J/uYvDVfgINoY+GkAEd1ir?##
?@@/K2EGn2z3BLmzLSy4BWTpdDhec98xLOx3YlhzFVxxqR2MEbJB5BP08hPNTAz31TUGb8n?##
?@@qeRTc8TggruuOAFKYa+f3TImDqdRHzRX41Ke3Jh+YN6EG+wNcbsIUdwPQEFZC4iaNZCV?##
?@@ygDJ1z7KkM3KAnIm8JxP3/Q+t+gDg69SG7qAvUw1Mk32uEKv6osYcNM3OaTmoLoMR02h?##
?@@00118wZ6q55hXg9VM9fixvyz019gt3Q53ZZP2h6gxTxevv2vmbZuOn4LV+MRV7xxQXwC?##
?@@9GnrV+Jw7SUPXMbRiIDKwdOweteZ3nXuRQ6E5dK5yPhlLoFSVrCvAA9OfJ01qdOn/OEG?##
?@@6QoZi9bIqj7JZNY58EStufmPWtHsypNTZBCT3suwh+2HMcM2w5gSiMt2q54j5mMUeuIp?##
?@@vpjksz5BpnAWPKl+aZxCX8ESyYIHNrVsgnasBHs0phZQG8bkfKnJD9wdgOrtrE5SP8OR?##
?@@cxNMz6iCfDGN48aunMUN+YkqZLigAK7tjnhPOpfBn9iCqFd3gyF9K3tVm/8YSlPMQZ4C?##
?@@wKoKZO/febd7VqAGb0fXmsoec8W3374vG6OQMv6aYdJgKkDlKwHsLqjhjqqxnYt6JiSa?##
?@@gYxYpEcYWYQfc64ZkassSrmoiJ/AudDz1pAIpXrMFPXAVsbRNfH5ncCRA/sW2B67QUpI?##
?@@sjH/jtmLJaAmgMwIPwcrzzTZPOF2KtQpjh0rrEpXJ/kwN4TXGXALRmAU6AcLHL2bDUfW?##
?@@dzaZMSq2N3UQ1EAHBV3ZuhXu7FBWq6u03CmxUyEcJ2hLWPDZ7OGMxpQiVRanXAJ/DO1P?##
?@@qNtAG2b73Ielslo9t3iV/rKy5F6IUn+6r9PkurGkOcUzCptDvIBAJ+b/foYDoa39gJSI?##
?@@Ecn9+zDAMA5By5qpo3uKcBifCgzlc0RLTwB15HUPKKTEgl6lNzJWUum6UwjSrzfvHDY5?##
?@@NgfAwQM0A/kpnkJ6wWxMivgvEilBVwa7fxcITuKXjNwIiUU/aZ2DSN9/BwZ89zOTr49C?##
?@@94IkYDCnj6wKj08IuwmdHgD4Bo7iH6SLTrQ5Rt8HJH9wm+NtgOlvAD3U5VnLZelUuded?##
?@@HCfPxwVNNPyRLJ3u+OP1LRvw2jEFEwCooIwXAkQzQyPW+LWOSxOII61/JQxTgCNr7vOM?##
?@@XVaoNyNUT+dtLPuUL/onaKYKRe+Aug8G8eFyMAx+p8Zqo3/zyM+ZNH/KfCsbwzvWxRLY?##
?@@MuVzX6SdVKnKgJ/eKpHqZQI8A1qJpG7zQf7cVVo6OMUYw3o+DQbwVYCIfBfJoBegmze+?##
?@@l0n8PB1/RlCJsvQ4/rpZ7gxd0fdLyby7qVWu7CzLo3mU38WWnSS63rkKCiZ2HctILx+Y?##
?@@eD6siYeH6l6r2XzIx2zUFficCn4U401jHVu7/QY1B142+G2b0W52PoDWsCuDbI/8vvs+?##
?@@gYxYpGkntqCiX/ggHVGHzNjsJLzB7Z+07USmSG946cHwolWtfCgW0HIRUT6oLdbCqKF+?##
?@@quxmy/GXzlonq2iN8sfviRSkCtI0M8DMmTX93dUGppafICAJ5nzLvO8LUYmD/IR0Ce+Z?##
?@@S7tRAKNhh5JoSr4YCM/ffwyy9KWyLOH9Yl7RGjcmMDObZyBlhJjRxo9GAEGO80VzUiKc?##
?@@DJ6eQao12ccAdJd9NO/scwFghd91pp1I7ybp7ahBVYYv84RPccMTyd/Vtwaq3fNc1gI/?##
?@@tUs4l3zwxBUOa30wTOtC5UgasdGptkcorFjC8Jc1gfsAJK3oDR8FMj/iAEyjR7H9LGu7?##
?@@mmM1RVp6kI5LKy4PzdwTq8B9aK8cJhtfJBThcNWGQlirzO13m4NuZN9ec2qK7Vn60+xc?##
?@@l0n8PDjN2+S62TdUV8zdhI+CrxOsOPt/tlKNTB73DIODBslfQQWvyO/ZNQbhU+/tMiGK?##
?@@qNtAG0bI56CTw8Gi5ZD+1/aZVMRjHP/nyClag6EIujmk+FU19jig4f4VluT8Ks0kRCLq?##
?@@8U+yTqZ1sbgaSes43jM2B9oY4gmDOA3RmPxBiG0WLZIRKAH8ikUqgNkKyLlWFNlItNou?##
?@@SrM+qC4K0dbNzb07EvTv3udVxBel8dNU6kC0AETJY1nqagvWYbBkAHh1sGvxw26MLQzY?##
?@@49aneM72kTfJhazm7I01cgBn0f2ubNnnXdGrqcO1sDEhaRQVH8tKmVouCH/XGy+5Pz1L?##
?@@FOM3BMGsnt6LM5XmiM0bQPsG8NcwNmrK9R5tHtZGHiDHoSoh/T+pO9pgJXjbvtTgkEf4?##
?@@Tc13sRwlbLnUunUiXtsGW97CJP0+7yK6vaRCVqLGGjK6AlfAYqgu1e82JS627dABUuRy?##
?@@jvxQIU3Cx9ZbCtuTWVHOR/SwAd4SoG1GuLWdax7IV3IkA+O3c2UxfoYLLIkZ5mLrD1zf?##
?@@K6ju9D/8YR3QnJ5IRZakLVw5jVBKpwDeILBuKb32zc15AuRoSsLZ8LeEYvxisZyLZYe0?##
?@@ZJIuogt/6cXnw1Q3NR7xXDhe7ADlvshjq9pr8dPMb02ggTP3ryvs6uslEs3IXnstjSZA?##
?@@beDavdakbKQvBi/8yizYwArCjGS5c5qamD1DnK2aGtv2rJvsJ85uSWBL7gRWVUx6zznH?##
?@@+pxeab/L0BQ9w7SLVJDC8Jsqz8gc1TAWPHAbcNoS6O67tcsZ0a4LFvHuVi1s65RaMJgO?##
?@@UwDpw2AQZLsGaFPJ6GqO8MYGa1574+yinM3Q4wJnquIHkXSv+tVbkxUV7J9wS4PVY22S?##
?@@DJ6eQRNbURhX3vijnD+8nYuRNBja7YlTJ2qFVYuobVzLkfBR+dqgaE0E9t7U8fzmD8ET?##
?@@RYje7i604tzZIm9kk930Eq0fzeTBe09ouFvNTyN7fn6cXUACRE4n5bLyvMmTnz6dy+Fv?##
?@@psoaarr7XICboLMOI+1d5ctS4RyFVrcADt82lgsdxecPsA/srykPPwLFT2Z+xejGDUEf?##
?@@L8s6VsqSGwMBpmvi1PjlKNBxf2SXeBsTyhy8hmjTuwlQP/LMmzdRoSM4conX0ZJYKQNX?##
?@@mFIPlappN9c0SbNnli5+ubbR+02mA8noc1fInFnV2Qs/fWswtRgdHiyscAVpAH+8BQmp?##
?@@vZDRWsgckAGI/PQ9fdnD30WOMBVhtAVyTs124CxMoX9DofRfBxMeaj8v0FNS6SLvcBg6?##
?@@mmM1RdmoYE40O98Jp1tK3rtao5CbHalFKcqQpmxsYEU4ZX6KLM+l56392dv4LYB0S0f0?##
?@@t1xeSOlrsdHehEpcLfCgeCM+dAANb6i3l286xv3gfqqYAID5vnZw5flzu1+pSdrpcG5i?##
?@@JGxoin1Y31m6BpB3H+QbDcJl4C9MIcp1+lZD1qCtM3EiXCc4lrChgoE4uONOdvERc7xE?##
?@@dSVygMbVN1ftl5CtBjbtH98RfboBLYtHNQchDwjysHtELQLItJocguk/77/0q0ohauwg?##
?@@ZqRUUsxFvkmBQ4+jCmNjaJFMXJKnRpqA254mSmZOBSXdWgeqE3Zf/hYLEY+QkNSNPk7Z?##
?@@n46U/+lz88Tvwa39dpdTDlgtqfJbM5E8wA91wTsxE7livQMy2xi1QTu5XA/9p2ZEG6BM?##
?@@6AEGMrqsoVieBcRDRXiZo4CTLUZoDEBB0L+zzQPNF5wenAgueaCk0ous6o0FbCy7XkNR?##
?@@zRkC4EJPNAdE7EIYCSTo2QU+o7dzsSY55nexp9FagMBjKFV28zV/3tZ65Pa4zJ40QieZ?##
?@@VhojzAMnBnW0Jtd816RBrzEPHi43ldBFd1DtF+z/szbp9jvQ6QSGmmUyeeImFZJAdVYE?##
?@@UwDpwzZDZFBWHf9u6hLT1pMz46tbu9sWYDNQBYypilBiTHdveieaexXbefnzyjwUHC5T?##
?@@eD6siYFWiPSfRCkxF9gbE0U0UsW5x97ovESykpvJ6jbFSXZYXXreKGwiKSRjom+PmOMT?##
?@@DaaxmelnokOfwCThWn5MjrHT1bouhoXjVgSQ1FocctbyPKTj97zxZ5g03QFzMYiHVLbz?##
?@@psoaag05j+H4ZWFRBbrGBL+E1kbvZEOoUpcMRVExIJmZIqtwUC30OQ9PNletGlATUwbB?##
?@@Y4obSfg0CaG4K5AO0Q8fWyfh9CUyK8Pa3GWWqBeSHNdY1Qks4xRZftZrEO5L9dmagpLP?##
?@@7CRSlPohGufRlax9dxZfO1VNBCxuXnXha+50TutiZ6PTJ48N7L1QziaGsUG7OckmXmRa?##
?@@QWaSjZKpVrPB9dD19MSZOzlE1EIkFhCkR+lv42Vxiycgnq6IpWXE798DZGtSGlW2sPbI?##
?@@fnIem9m1GvEj/oFtVwg5uZwRHIZJn0/R5DHPSlMD5OHa/vREA/q8kJQJrGmWIpvSXcIS?##
?@@t1xeSN9VLXfiM63l3KD255WLoOnqTsYd9Pe2JwjVe5S+bq2RZlM4FRxhfjdkXKMDe56r?##
?@@TMRkWaJJOMgxuoE9hlziIwPx99udjzFxliBCOcbdBmLvt5UhtxCidGJ5+SAgOCSGp6IH?##
?@@KZfHRAyYmlN6OLGfv/taf61P/8qgAbUcxFZ++ngoQTlVmD3fXEzoLtrgPYx2PHC23XUX?##
?@@+pxeaQJk2IlRoSJMZyK+pxSBl3fbc1fyrqRXB8PeUFfTcjxmohD73JFrfdLUnOsmvUXE?##
?@@7z6MnRiPmH9RdkCMarcv5ejPcTnh7j4AzVebYsE6FOYdZG15py89Etd0rR6f2hUc9YCh?##
?@@jOoqcBNJ9u6PQ7xFVId5cdlVV7U+ijJUmMcvQzopBEMSDHAOe0jsLPsFdVtZUXvPeXGT?##
?@@FetKXFbLm49D4dwR+NcEZHeGHxfIQV5JzwwGyhH3uLEZV85QMY+GxsK2QX4baEdR3lfR?##
?@@7jV5RHFxK8B92ygHG57reW7uMOTIJXs4DibEcAVth+DIrMPg0ODADCUZ6Q8wdJ/C/w97?##
?@@zyspkZcIhqCOhL8I0MyF99ZsB1QbuHkOqDfsOFhfrDr0KInWGY+8uVBv6N9/ojXQABBj?##
?@@lC/CM05kxngOzrkZJIiHeDBUEPooP7NQ/f3yJkp2PYIYrSr+FC3wHfWSbuvbme0YOZEE?##
?@@cQImHpGIEoKzJREIE7GjzpOQdkBtsHkLeJ7NIOXJJzAhxBstRHkDw5jVg3QFEOyRPdgs?##
?@@tlRL8JWpjeI3yQvss6RXDF1v9S5pxQC1g1bODuzoSsKOqTFKZnWnJdKaErM1KYclBVA+?##
?@@12/BVLL/qKMw6swZZE3NqVzvrofwFVi9/g/qk7K4SSMkCFye6tjrhDc6/hgp3ylIzN+o?##
?@@PDsy03crmQ4KLfsHQV93+xouJJEqt3YovGKghFMMfZjsdN4WcvwgRKH8n49yQliaM6QY?##
?@@zRkC4Cj2beJ/lpO+dAkivMGUR5gcOBykRUshDdOcSPVuYqx1jA2JKIxFKqr8vKs+QtTA?##
?@@asagtHjBS0j1cQeV+oePYAy3pIrn7SrvuEA1Ku2RiSbQmXsyS53tXTJg3m7aSTx0ENIE?##
?@@25IOtUNOw+Vl1abIuWCzDh7iZ0RTlAYFAy7XVy6lGRLM5TmenwVtcGQP0TVYwyZ3deGE?##
?@@EMDqolA+9eOeCnhhH288hcTL1xWl76RF8Atr/Sp7HzbR4nCz+hYNcFpGG26w8/Mxl5v5?##
?@@Ecn9+7RYta95RVCoBELCuMRii50HJWXvgGUGdqhqR4FbmPaYcLJAAfB06zz6yKA70yyX?##
?@@SrM+qCyRbkLt/T9LmCTYzyqN/tjowlVsDK/tFlazMKc1somIUr2B1nxpnmpIbHdbEpR9?##
?@@b/EAbtGt4/tDKTcYPnKklb0j5+pFjtyGnaQ/SG9vnLVbMtgN3nVVEDl9GWhITt1aRzWm?##
?@@kA120uCQ6x113xcALLbnk+k/lCRft8fPOJh36ZGlG58AYPpajWmMR0LmudS9K5pRUAdR?##
?@@eUe/4RbAVgjBSToT2tXXscWdIj5Vh7Y1GSEgmtwR8VGJ/r9wllDKEBmoWx1KQiBkdinE?##
?@@rg+zLRa3KcRgVHFKl6cBvOyukdjAOX59UQ00Cd3T09Hz/mtkeDyJbBaoIn/IEcmkRiIs?##
?@@cxNMz2hYBda6NmBCHkf1bUGmfw2s8oGwwEPiGHY9Wk/JlWn6WkGpoAUBHHIIFyxsG/75?##
?@@LLEBTcmGuvLt18W5gax8H9PWLnds9HI255laKyHp9PJlX/indgWYRrUaHwrPUWhXfmOA?##
?@@kRWJKssjZPNmt8bmR5o+4BZoIQUOlCTtdjbmY4Q8SoGCYD+4zIWRYoxp6emB+tTD7tIE?##
?@@fnIem9XGcNP8H9+03h4kQWoick+ef9PWV7U38y3xtTdgj4/cJv0hyBDlM0kMdwHrNG5j?##
?@@i+IWGLJtq0KWq5AerKEEdPx6giihGxPB00TxplHdYWdkYLBONRO7fh2r6IG1FxS83B1m?##
?@@QF1/NLrWkACUM/wiZuHu+e82SaimVv38SNL4KYvUdZqtAnDcuBCY3zTbABE6/a2AYYQd?##
?@@dSVygJwmXzzEKpXrQojlXBmmiRtPqgrtT1Ra+m2nZr28sAxSBOLyq5V5cn/z1vZvz7kC?##
?@@9noRB3eqmH5+LpUdKgMpTIIyaaxSijnWqY8txmERbMfJx/fhgCL6dJ5QQFrbqOMWQWKc?##
?@@49aneBZImdXA2g323jMeawswBPdZpArBXYFEdBnkExKLih9BEgE6Mat4hJTvjNsIDrhH?##
?@@5N+60SotSXVaJobzU08N0TtAVVbHf6ZpDqDEG7ZPkPHx6NUSsL0qOx+DLNtxhXWdvibi?##
?@@+ZRLEewf5+1m2A8rVyPkeZESFdxZy/hz8zqDpEcTCHZuPRGbox7sqPlTLaLOJyxIswop?##
?@@PkxYg6o35JT9EXkT1jr/x3ywrDeZgZsLNoGuuKtrsfqgWmlAi7efLErbsU/Hk70LhQXU?##
?@@K6ju9LjM/Hth7EIGHd3v8FDDAc6+FXS+NNpBj8XU87yxi6v/O6WrOu8fWxDgKYOaqnR6?##
?@@WCtJfQmKhsUVfovhaUkqhm4hjWbZxfVLHGfMbHjQjfNnqD7GIya75SJpe0Gkf2tubUOZ?##
?@@FetKXFfYRrbPl2qcyj5emddRx5aV56yta0WV2gJE/A4uS9Y7fd2eSOy0z9jP9hjtiKfH?##
?@@cgs5d0zm7S3FKcmybflYYVpR7yhd5nxJlu0UUFpXgPCrrc1ocQmAvHW0CDXCxskeBCzb?##
?@@OzIfeoCRqrxPK5fAjvF6i44ET6eQV6l6E400Pbs3gSEeOp35Df3NgkPo116OuJbTUgVv?##
?@@9GnrV+/5L0UJred9TrAVJscpDoRKBniWFBrR/jpFU+XZPosb+2FqV6chT0FtA33XF5Ry?##
?@@4cWAyET2/8xc3TIyfk0gVtCxsIDHihDXV7mDIvnFCGcfsBHndreCs0dMk2vKgZsSYq4o?##
?@@ygDJ13ErgUmqN765/JihTUnXFO92f6yV4JoJPu30l4OkL8vgHkjz0SMSHCO4g2CQ/ukL?##
?@@n46U/5irwzcnOKJGIuUus+UTOuO5dzh88RH1sOBZ2VzWPcL4X63vCdjiYkEOMYm4YdRy?##
?@@oJanWPvUvAKXY0R5Z2hQAT5mW5ZGGNBrvGeUl0FzjX1nktCHVQ90XNYeyia0CINqoyB2?##
?@@ZZtB+hPLdBYy1JznI/b5miLm0DIqzOQjsrfEndUASszLt704XafRPz9whX7e7UVb/Tde?##
?@@2on7XWmLt1fnuSUctt+CzhUdfpwJH6X/2u+Y0ayGcp0lYOXMr61firQbBerRr64MD9ym?##
?@@D7jXSvE1bENJNtePDNgs7PoLzRS3AhQ7oZe19V+z0bW72arfPx+VOl/2bJFPK9Q108f7?##
?@@mFIPlet6TfqbpsAlzV99WWhJouHYr+UXKKYw4WKqNlVQS1P9GaePkeXM4VAbiflEHa9t?##
?@@MdxgBwId9IBBN7ktTEWfrsuGtpwd9j2oP5J1XSIpEua655RGPfqASdsQkK5ArQ63cg7d?##
?@@Hjn1eLcM6/rBQJdsTjHoSdRVhPkLSNzIJOYqwuiUR3YDlKs0EJRO4jqxDajPF1qTAC1C?##
?@@J4ahkwbxLK6MLCF7v5RZxxdBfKhTGhumg7dnwtl8w4hoAAB7RY/bp6Z/dvHwD6urLUBi?##
?@@BFkFfgoGLZjFa78e92WAsqlse6QOMCTSe5KiiWriscV6E2fSioiXg1vdaIPEW7TxKUnb?##
?@@LboUpY2Uh+teGNHobS2ww9yDYHST7fyeI/SgZH1MOHRtYxPKtuBxb/72OWmub9K6N5zC?##
?@@OikMIoL9GLpNfB4OlG3bKTvcu3Zq2DfJUZzyisnmv/KvWjMqZnFP5rvkNz3DKsztpm5v?##
?@@e1jlkts3hZqs7Y/dliGvOf/f/2RYx42xLVkFjFdCISaUHDrwFVOmvfzh9xmi0M7X88IT?##
?@@ADe5Hdd5F58RdJWM3H/MQcPiMlLz8qVf+z7bnSi9s61M1fF80P7eLY1j7OBw8YpFzCsb?##
?@@+ZRLER3FNHovtl5vnIG/vHlLLPlK1B1z4NBHthpEz0kyg/RyBx3z4ltb1MsZ+rQaELFj?##
?@@IltC2eDS9dfUBLtbU2m9CKoZmhe1q5akfnK5amL/sH+6JSX+d/RaDvXK4yeNl7OzFc6W?##
?@@I2RVMdpn/KMr/fjZO9tgR0g2GI2vnLSfBGbiMJylEh1Tjx+jxz9RfbOz6obIrF9KgsF6?##
?@@xMxXxcDCf8lMwBoRqyHvLTTzHWTZNRCS3ZNzTjMh68A2GrEkgbzosCGf+iYLUNJDOoqm?##
?@@WTRc1VKXuMZUSB/HSs7UbDrLpq0AgC/fHlsai/ObSY8l3kUBeqtX9D3997AeUIpm7XGc?##
?@@vpjksyntqvaS7tFrldS4hjgdV5SEpp3mC6cq52pr/HDKrNbRUPQkvyZq+LsCAOaDjB1z?##
?@@J4ahk8ogfNLmgOqoJRw009L5CB5kT6RlsGn7gBaIhXhRmmckQOLijc+mw9XoNUjLPWIP?##
?@@SKIX94lG5KR0/YsxSTz7pvnJ3N10ci9e4Vp2yBZYVGRz77NXuXHMb6lNyXgmB8fsf8N0?##
?@@zRkC4JbD3HCMSurlCgBYwTlgxBG36iQaQ80CBh4CkcYig1hrJvWt++dDhVmo0PekkPLt?##
?@@SrM+qJE7iKK3KDegTa5mZg8BVakvegN7oQWIPRaP2LA3ZmE+kufz5gRD6+tw95ix2qWA?##
?@@F/xwDWQ4SvedLd2AffMV2fxCoGlMYgtt7f373wOgJW3EWSpx6DD4Nb5LtLwtNYllvGMn?##
?@@pLn0uXDo1vOTZ4qlhklWMNBC7+iCVoz9Y1czkGqq5/H6NhfVw8M2Y0W062Mz9FzoRoB3?##
?@@jfM9ybrEzyc3WgwfOTThBgu015g42IdVPozUFyVHBxAkwuxtl/zwHp718F/loXXxO0RQ?##
?@@7jV1RColmY41TlxHwb5/vkYoUfLK8AGlZ/dQnHqsONwCdcY/nNB0WPytuOtlixvJirpL?##
?@@--END ENCRYPTION: "ST MICRO LIBRARY ENCRYPTION", 204 lines
*

.ENDS LM2904
*** End of subcircuit definition.




.SIMULATOR SIMETRIX


****************************************************************************
*
* WARNING : please consider following remarks before usage
*
* 1) All models are a tradeoff between accuracy and complexity (ie. simulation
*    time).
*
* 2) Macromodels are not a substitute to breadboarding, they rather confirm the
*    validity of a design approach and help to select surrounding component values.
*
* 3) A macromodel emulates the NOMINAL performance of a TYPICAL device within
*    SPECIFIED OPERATING CONDITIONS (ie. temperature, supply voltage, etc.).
*    Thus the macromodel is often not as exhaustive as the datasheet, its goal
*    is to illustrate the main parameters of the product.
*
* 4) Data issued from macromodels used outside of its specified conditions
*    (Vcc, Temperature, etc) or even worse: outside of the device operating
*    conditions (Vcc, Vicm, etc) are not reliable in any way.
*
****************************************************************************
****
***  LMV321_STM  Spice macromodel subckt 
***
***  Version 2.0 (March 2011)
****                      
************ CONNECTIONS: 
****             NON-INVERTING INPUT
****              |  INVERTING INPUT
****              |   |   POSITIVE POWER SUPPLY
****              |   |    |   NEGATIVE POWER SUPPLY
****              |   |    |    |  OUTPUT  
****              |   |    |    |   |     
****              |   |    |    |   |  
.SUBCKT LMV321_STM    VP  VM  VCCP VCCN  VS


*#ASSOC symbol=LMV321_STM category="Op-amps"


*
?@@--START ENCRYPTION: "ST MICRO LIBRARY ENCRYPTION"
?@@P1RT2XvxE4cX/DT/5q3ekd4kVPb8M8+qE4RADaFiejNEMZWBymOw3jVtCaVR4031Bcby?##
?@@fGHf5pNyUKFxyI/azLZ5fvMkCvmTnqbMLcl59ck9C7PTen/U3cfZzSR85DFXu4cE7L8b?##
?@@Lbr1o5CMrboWOq+nQz1yxc2F7fxq9HSiACsz7k64WHbL2DsEBzn9fwdQ2UGWr39qm1tk?##
?@@xt19dipGVDA6twLnuRC/XHxgjmVkUllgf5osIC/7ZRmyVAfmROuXf6dAb2GoSEt6Ysay?##
?@@dzaZMQKK7e5yHRk3I+oGODhk4SdatRzlXoUF92/0u4eu2IZvzX9tW+zzqY3PGZdGQHgk?##
?@@YHDiQKv99yE/9H2PXLXekFScyc6WGVXUAwUaOOfJbGx/RNJfuSbIYjLUME35YOPgF1t8?##
?@@xdVqHZLnnwXGB74dz1vPTkOt3DleN8+tAZsb/riottcBvlxhPttihNhpLH2XElEydXuy?##
?@@Co14kImKuNJqlAPGRQzazIqdqD2OJzEXekdpcmidbAL93EfboUZftTQXZsgpOsQbaR6H?##
?@@S7tRAJElt4xz5gKxZJHTEMXkhJN3KTQcdJHm/xQlVi/FzYBvOleXCDGJtY4YC+kNgO58?##
?@@nHRb9gGfPXKM11ZlVNt/63smMXU3/VWvmYZ1GjSZ5tl2i6uXonHYvfN7Yenz8pfgH7QE?##
?@@XVaoN4M0himFCDekA9jwLoKn/6r5tCXyHL6qyRnG9latudkz29i85mbOUj+avW8ndIe6?##
?@@sjH/jovdOkn1TugmtaZ0lbYgfiAdyTt7gsY/zX+YAW+O8rEbg4tLyY0TQ3bhHQFCzSgr?##
?@@12/BVArqbBPNU+WEaDd//PQHeFC6Zvz72zFlQlCTIyddRX3+yGJJcgsLhgrgNwtCk5YS?##
?@@0DM86aN3NwutGaXUgUFOjX+WT/NOO+nsPhCyP/H1fX/byjsH1iKStNXCyq7KrOZvV7rf?##
?@@ha6kBkx6In8ary4dphF8BFSvHBGe0RWfZttwzkcfnsyIKVEUjVYye6BeMDzLTysh5dNy?##
?@@1meu/Ns5k3QjjIgWFI47Ugf++m3zzwt2147fF3uFt5AbOVNfeMSTei3TFVTgsB1AJsfE?##
?@@7z6MnfwpsD4caDRpoy7ulVOsXnNmOCh1SLJ+9ZhZ6szk11qg3icuqajr+rfo4LMw44c/?##
?@@wKoKZAjYxYxyxZUrfceHGfvRmRJUXkiWW4hulVNJkZ0yQUUr/U7C8BujjFfRPIMhQTkp?##
?@@JXV74u8BCkfqKLSdrJTphKmy0t5rEk99IiE+vsSHvGDDA3JvbDbt/PPIy2T9x3BYx3XS?##
?@@GhapFoKVEJWXJXripvss3qZg/bJ594aPi8yGalV3L9m9WBXSrrP4+3huHhsRejzQbDC8?##
?@@i+IWGOpcgytDmq6PCZeaLd4F1tX8qhB8R/OixEVAhoOCZg8WnuLXBlRQkv9z72hEktiD?##
?@@iMjdD/JJNBIsgOSZz1KRvc1Ddewwn/zBcf4CdxGGo0g4/uvDdwBAhz+yz6N7totpml/t?##
?@@QWaSjdoFH61+pJ43EyFZwSquWdZCPLyEtPx+O53lBpnUjdVf6gpEQDHX3e+KVag3Hs7b?##
?@@cgs5d+sWI0C/6Fz6dSUZhTN8R012Gu+DtCej7Vvh7nF0k8JLOFZRMcX3/Unp97R9r7H0?##
?@@J4ahk74dlOO/7r4Dy/ZkvXz2yOS2Rf9SlqJDeyJDm4is5yBG3IwMCp/i3Ni+rL3u0Fbk?##
?@@YHDiQBuVqUSOHl1ahdAJ0yuI3IL2WLgYbchAWApUETBRsWUg/hCBTBEfL3cWTjytOlvF?##
?@@1V6bowKE/Fd+akKynse+pDWglkIIs/YW9xK7MC2n5bJekehv2h14jWLr5oLKe9ScMXPr?##
?@@xt19duv5842FsqXPbqWpBPNpoh/HxGUmBNLLIOdSuz4JGCFDQW2nU4am/f6Iu7BaWC/C?##
?@@Z6xnqz3NbQQv2VNc04vkTDX37XZZTx0YwyujIlGT8cZZrIs2gksHq8vc/8Di/7pgt5dF?##
?@@QF1/NDi6yfO3FAp0SeOpjgimkiG15vOf//v6zMl+5egBx9xHdRCvMdpP5MtMb+9Ql+0b?##
?@@jfM9yXkyjYiUTpRK+Ba+TAF2R60MKvW2JkWgn7Dpt0+2V9uIuJA89MawqSVhA+vw7qAs?##
?@@UvjWa2J29Lx+JoixQ/hQHa0BIsWjNPz9W9O312AHsIGejiRLyrCNB3CiG+dyWnDOiuCU?##
?@@dzaZMZGGOO4onI6hssuffqPZR6X9CE1dyGZ/0PDvE+JjV6J6miUJ/TCvQBrqZYAKm6rZ?##
?@@QF1/NDiaWRwgP+PQbS2EJalvms+KOuHI/xp+y5u9fMxkBPZurAlCWeOdRtv5URYVIjRV?##
?@@Ecn9+0w2rICXYkr3n4SBEXAz/oNEMscn79qz2xuo+47HjhrfmXCkBJUZjryO1cGIjNfz?##
?@@oqjOCIlpFUC0kw/u6Sr99qY5Kj+qmqMC1AMSlJTA83Zgywgo1LEtIwFyqzwPaF91Knjs?##
?@@a8+0DEBZ+6ecYZB5zH5EMmi0n6vlgkLNaitqmpgnypJnDRKqps8RY64iVWvkyoQuC9O3?##
?@@BFkFfkhp64Y/EbMMTSdmgZhgjcByDfVjok12LU0vBfe/m9trmyg+NfXheWAKxt7mSk1H?##
?@@IVIvgQEu9ZoHWOWbAEcQdL0leWP9TkIe66RrVFoL180aMDrXLQ6a/0K9sCldDy8p9ium?##
?@@bujtFSbHlvGIpuvncDHA8ExBolqFDNrHjjGqFELod3sW0Gw3l/Q8Fz9WZ1T67PwZ7b3q?##
?@@t1xeSJI2SnmE2XdN0guMtuNSFZu51Ac004aNAf6JB7751dApbdvmnJGI+dwR2zDO/kl/?##
?@@gINETLJwu51VkQ39o6gldhU7XlEWDxsMWvAJVHn+qf4jg/pnVWmB9ezlhyEozz6i9WRd?##
?@@cQImHgrpj64ztBa2L1uh1X8Ytsk7mPOJAgi/33zfG2vyPK8YHOnPW4R4bMwSriY4bwkV?##
?@@7jV5RKGaTH4wbwn6RKkZJfpLSjC9knpUAuyx6iKVYj3RDAsiPkyh4wTmkaae2WEHMvtK?##
?@@5/nz2mj7DiR3RLpbGQVIkBesUuuq4jMgyMwQuJjoSgqbuDJY2q3bSVzZJgAkoIFGv1fU?##
?@@nHRb9rioo6aHibDXN5o+VHhC7+GDrGD5tGy1E1Hx7MxFlnMivb6IpVfnlvDHIHpmEKbF?##
?@@CYRlONtwnIZ9E/ESd61fkTeBcZL/83XSF3p/cwEF8bsDk8Tv0EN/u18haekgBPtZhOvM?##
?@@tlRL8MSgPeDsrRakK1pPOGtO3i8KWmQifpozgsEtp7ihSI+bPpmTYGOGJtZeaeyLPgQv?##
?@@F/xwDY+2bjwKimYECZCE38EMRK96NO6EF4eYFrEGCLGDzxrHFFlaLT6zmvBKVbzBtq/L?##
?@@+Is3uITX3c73OF+AbHyRqF6dDxr0b7/atT0KtUENGavh3Y4DdqOB28oKzHQr2urkWXIm?##
?@@3aM0Zoa0Jy6tPDi+unpfyVflkbllZJoY8EXQ7XJ7tjCP4dFuF6u4oum/kohKIjJwdt6r?##
?@@psoaaqO5MtguvbzHpKjRMsQeJBAs4syAw1GFljXcrqdd0zWDfJp0Z8DHTtelISBfvZnR?##
?@@f3sx89RVUbPVujDUcGl/x+ns2TzDU0LuMJkwDRdxEXM5RlLMkkdkNEZDF7Aw+chcFTZ6?##
?@@WCtJfVgiqb1aL6oprODcRleGTKKTjiL74LVbN0ftVsCFveUcqkVWAMGz4gR7Ey1E8V9y?##
?@@cQImHsEoimUYsSaJP9Ul9Thg8m4xQfmTKdaHRfhKc+YL5DPpmdy5/Qv/IbJ+lYPT5MrF?##
?@@/r+qylGGpPLeP/aqQ9R/HDuEPUkuV8T3Rh9ToULvrwp1Elf/zqlaQEYtBr+Te1ozVMUD?##
?@@szoS5+9QBGUZVrqIYGibeG6OpCKHsIhZH9owyXNEpy18RSULILBT/OgHSHOgsutnM5FK?##
?@@2HjVrFdhTFeQgjrym7Os89NEJcnvAaaSfDs5IzVx89OCE4IFqs/58fm0rErU/56/Vne4?##
?@@ZZtB+upMvS7FCHmEUbeDzNlThnrfx9RN0sDUd33/s4OuMufx+h35S4Rzz+SO63m8jyUC?##
?@@sjH/jurEQk/TaOXKpVCFSQ6AhN4yxx1LtnkMGCY+9Dg42bfOU9WbNCud5/EggImCv/mp?##
?@@ywjcMKnDXdi6xsiRVbMaMw0KbKbuvDmMG0cifUS+B2C4ppBytIu4rjS/uaOBlCwIlKxy?##
?@@FOM3BOF7J/aYSMM/+eeGnqDCD9a23flBpMPE0DSDCPmGGj/FBb0pBKRMmd0fEFSpZhZD?##
?@@4cWAyLGySbeEshnc7l9M8LZ9M1epazZ4gUeKMrkX+3gQ8Ddr8tbNGR5oxrNddFosekMq?##
?@@quxmy0BjzGOFFfP6/tzCA6olrfCnc80pjdGre4T+j04TfQ8Ro/gU4w73S1drUDpjibHs?##
?@@M+2Gt/Hr68q4tJq1B7ydaCN866WpEO1g18fLmOcRcsISyAeF0OGHZu4GQKC+pL7hd+Xf?##
?@@PDsy0/BKDJfb4wYnSXg76ow/7/WGuH665VjhGunt4gYcbwr/MSmfSwMdUdd+rOhKR/Ga?##
?@@AT/MdR/YfsBH/6rY8UJjYLtG9iSTfDlhTSVvjRuFAv4luS5PgdBS4FBv+wymZ3YEfRKX?##
?@@hre3Xh/8kP5Kwu8XIBuMd2PauqpOz6VDivvZz8zjkjGAZfHsrXfO1XRx0889f/On78O5?##
?@@szoS5165okCCsbR+7e6qf5OAZTgPCa/+jttyYTrFNLQ73B4H6iwmLZHkzR3goUSIW6wq?##
?@@MNNNrnchKr1u7QudSJQAQ7afgUgx4UbE2/X0oHzmwxoPSrxBagLiWTTigkmjeK8npp/R?##
?@@mVoi7aH7kqByOggi3YWC2W6IdUlx61p4W0Upr0ezU+gBcp7A8JiG3IZA21Vqr8p3Vldi?##
?@@Co14kN2x99K+DSyP/qTDP86587TUOuUpS/DNmKSC4lg0+6pcBzRwq7Sk2c5qSUXdoN0m?##
?@@X2fO6AC6ghUw6d3U7jjAFP+KXo34o+bznf1M3tCsec+GYS6xoHCD6HYGiMy4LsTiOICf?##
?@@MNNNrvhMhMCxSVIQR9u+0fmugd+OEgH4bgutklALYvuIfI64EwWPnq5ib2Hrjpqx7JLi?##
?@@BWIY1v0SJaCgMNe05hy9uHFfl7r6W6nNbXqzUDmkKafrejTK9KeJIuLvIhGHAZd3klK8?##
?@@tlRL8NKO0a6iJ7ow1DbxbYNMNGqGoH1mU3jKMiTfZ60CuyGYQLo5tpyUJq/Ti6pcTXUj?##
?@@D7jXSsDKLuvg40pKNU/WBh4y6UX0w9Clrz7l/8Ck9/vnHYAmlENzjrHkmKHqj5/odUIz?##
?@@zBHviE2SdC9/fMILgu1EJ679ovf0NfhArTRIRA6/zEkeeuPmeBoBK4b5KtRPM3Baoli/?##
?@@XVaoNxpkRfQ0AO9OEUEc6e74eryuSTGTB3QJLV4cXg6dQcYWPO+k/hCpjfgpbSGtvBRd?##
?@@Xl+7j2PVsQp7MYKvlh9KGOBTa697CU2RDQuj1h1n6AhBMgGZqHgwujleli8ngScB7jFh?##
?@@h7/Ktgyq6Rm4XlCDbv5MagYi4FBXznKH4qj7oWpVis88mQxYe+CGgziBN6Szq4YGO+YL?##
?@@GAWDZdKXLJ+e6QIKnNzUIWiuDtcBbmiqkwOv//NO47YurfAMk1h49mpjrO9p70pz1oSC?##
?@@RYje7vVT2wA9uWYbJUeWYPclTQorOCJq01wpu300qsRU07KapbjCOs+kxgNc05LBnAXJ?##
?@@+pxeaaxf009ILT8SsBlj7W4dfDKnhS+a+8nbEt4yQ6UaiUrtpzeS8QCkxS1p5VUxMqjh?##
?@@q/V5JCkAs+gsv4zEGnxitiC55JRw0z6TQxWCGcDtlxbkqKwqNqK/GnjiI6he6zVNLvBV?##
?@@JGxoihxl8kZstZ6agKpuS1vF+uqnjksPdsDmt8P24zVrRYOLg0lYNUEVgXMnBgkZXHrS?##
?@@6QoZi++vo0dqSmgj3Ok8fBORw2VP7ABcXVvJDC1ARNf1xdpxf1S3C+85wU/MK88qSf0S?##
?@@oqjOCKzR+jXXdGQrDHG/nbAemyRfv4VEuI4US3ZltUI0F1oCm49gpTp/WgVZh2LQUZOp?##
?@@6xs/O+/bmFADZr3SRLjmI/GBzaTczCb/YxojSSCFom7yzQZ9RS9wx0aYHrgZS3Y4Ulw5?##
?@@4L1tb+mHNpnIK6SsWBOrIO0SDWtio2cm9H8kbZL6S/m77HOnp2XSK3Bb0MRwa5GKKS4w?##
?@@XVaoN/wvHb918HOjBBwlyGFE+kyO7S9i6/oh9Oa4EAzmZsY5IwlFA+x9s+sXMvey5CzY?##
?@@+pxeaV3XUtiUleviCHMYbNt5C0Ji/ikRga9dEzVavGzcBWOq4CFGwnS+n4AFvv7pd0aw?##
?@@o7DhYTG1DY4kjTQGm/oj94BI93SbkR3dWMoSYsDd6f4AggPyI7hhdKfXipoNKiTQJ/UQ?##
?@@aLV6A53iAOHsBi/jhg+E7dngWibEo/LoPjuBZ+lEpbYpqVA3zxMoSRrMFikuDy5O8YWD?##
?@@eUe/4QYWpc2yVON53u8fOmk5toOT6gurorWg1dAm2mhocUpmMQwGAoxnOIQjjfOnVQ4J?##
?@@9noRBzuUaGrMqGCMxCscGMraQP242sc4aRcsV8mbAJLrbGo/ZEAnMk/piXMd7ED4/dB3?##
?@@h7/KthynUagML2l/FBce4CnbG/he69tqxxp5QU/kpc7YHZ/6q66EsWrA8Q5eK+Gbqk59?##
?@@kA120u5guyDRKNJ8yiI9u5cNVix31hCXTgLElYxZyIJOiZ9p0oqbMczYY/4W4MAHgjm5?##
?@@ZZtB+swteD7OQwbOM3I2nUr2idVzchflZi4VP9lOnaIICpFGHrd2FogPPB0YSZnchqQk?##
?@@4s6TIK1L+xx42WlfE1253naZJHN+kOevs5Jnh/+u4QA9BSvJIVFqjQF/DneXxLQomKeb?##
?@@A1DyJuAJipFMnjYVdqFhBI2ZaDxGhgnJffk5VbYNe7OTsY+oMj5Uq5fViZ4OM3O8OPyh?##
?@@UOawuuJ4+cryNXMyLKCXPV5G6U7N35FTuaTscfE6F1lEAKJY5mD3kPaOQCdcx9Z+Mgb+?##
?@@PUNFK0m3irK7XGykF/KCfxGM30gYSCrB1HrU0OWlSK/mZM1iSeUvMzrxZntHdlhDjZPx?##
?@@+pxeacGKXW4WvqAdnhYIawXDHcLUj59+Qo1NpIkg2PxPaZ0VLvazlBAUuiYmwgM6rHLJ?##
?@@Q3e4PQSqvOd5ynJ14YNybvpl1EF4J/lgg5BySz2nmJl7KAmzYZcmbnvhiV33kDBJCZXq?##
?@@wKoKZDFGgkNRvSHJSMjB+6PHyuEJyYtv4NtwRG+G1rjFJ3CkdCLC1h3SdZ9ohQ4q083D?##
?@@OSH5ymcuGatZQH1+KY9Ghb+ubRfAwraE3Yfjx6nV/KcKHdGA9sZBJWyanSGLhxvcLK/H?##
?@@noWBp4MTZVhXtr/HJec40Fkue0pBAUCcSy6ipnFVEvGXEFQ3+bVg2/8dTX0HRbEFPsVU?##
?@@kyev20cOY7rR7tJfdUVvnGmZu8tHJdvMn9OH4Nscex8bBI0L8+tEKq0yQLKznOe+Y3ag?##
?@@6AEGMijSORsN+XGTAQyzDkMRQJKL27VbbB532Thwdga+zSw7lr/JG2SW+6gz68qeuxq/?##
?@@Ue/DEujnA1HA6u+kGJuQ0/79ns5TIHFzDzQV6l25uNrlcHmzn1t0l3wZJMLc0dKYlwk+?##
?@@FvRdtZ8W6ItAqR1kA6Xc4YfSNk32LAaKqP1n738yIgqNTPzEkk9iGk09SVSPm6OZN5fP?##
?@@L8s6VvaOnAQNgBsaFdVYKAS7cQFokeQGPQ2ZN1kfDiuPlSvBvQzo5IjMVIwsGsEV9Xab?##
?@@WCtJfSS5+9mPnIYSvGunn2TbhCJUHeOBpVk21tehoiyhLwozgDi635wlVkOPZ/mA03Ib?##
?@@OSH5ylRciD/VDjhJI0P789GArNaJRbn18+5szT6yMI//nOo6y/rxLLtHLGIw0RdCxNQV?##
?@@0kRimk48Q7QqxjAPRQxH0riMyMRDsA+AXj5IKjwNHhmyXQpe7uqXqoV4VP6w1nb1YaWV?##
?@@P1Rs3HB8qiamu7l1H7cOzzebA/dCgg69Nzy8rIkDWob+F0eIxr9ar83nXdejwrGuCWFU?##
?@@+Is3uL5SYhKI0u/lIfYDU90D5JZNZJCeawnhXDwouychX2mwt2uFB09szPM3L+Irv7Qf?##
?@@+ZRLEZgoh1Zc6gHSO4tfGNIPbDbov5GITu9QodAUquVqqxJ47LnrqogPvrh4zlr84YNX?##
?@@ygDJ1xX+NqnihndT3o+ftiNo+ouE8hPs8g0Hu63gES/HNgNq381Dj5xWB3iLes0NZRNq?##
?@@Q3e4Pbas1FVryDww41bq1qeeQvy4uCEWBMwElS4UQM0MbNBxDwEq9T+IwelbSIoIhhYT?##
?@@aLV6AxC+l8YW64RhySiZkXKSNx+4zUgq6vMf+4QuXp5TdaGJsWPE9Nc2M8VVWJ3t4UQf?##
?@@ha6kBoHLSWD5tDzjY+O8zrlbUc2jxDVJy81+oqLjYTVGd0NSXPYQN6Aykffmw0UAJc2P?##
?@@FvRdtbZlcT6Z1uQXVKQFOiACnpSPnjINpKVyzC2OdKhBuFKAbrrVvm/CuC5dDQOSU8yt?##
?@@q/V5JC0zDf8rvfeP/k9mJkxQ+7s8fIVpMYNikr/qX4PolSCc+eflzvLsICWBfLXxtrUc?##
?@@0DM86csf380cWSZz7A4W/FnFfBGze/eESs7r9mYA7vyUR4aHUmpo7L2mA3JeQjqouJey?##
?@@YXn1mDA1uDl0uHcBQm3cIMHoZ/Rrwgn1+ru/NnfOUiyfr+fFcUk2LIHbN98GwYIZMGmB?##
?@@IltC2Ucg7zjp2DW866foTvf/+PlYJe+H8sJDELNquYov9njwL7/ODdfln6h1OBz3BWXc?##
?@@001186jdkdiGD4Yn6gFw2ooFhvVrqCs5beqJyns8ej/y1/9NLZ77bz7SrUd5M2aB9Ok8?##
?@@6AEGMu5EspysXrx2Kmx8IbgYyM6FNr7++sAdbXD/4cfE5tOsAs6VhRAQlBN7eny9mQjT?##
?@@9XH+r9mHSH3q7BewO2Gb/eMzP3OmlOkmivNRmED7h6E64MkmDK1nKpUDsq4XMp2TLGME?##
?@@UvjWa4x1Z/Updct5yHuE6vg28xPvJPTwsQI3fAA/7wuuZUcRt1V1oZUoodn84wVMUsbd?##
?@@b/EAbqtWDcBCScAsc1+vUJBNgB/ycRv8BK5MTCb8KVChs1ISG28JSVFYNEcey8Ez2aZY?##
?@@TMRkWYgOhZqL+6SbU7vZZP7inYKtTjSGsWEa1oFs1Bjqk2cHByoWQvY3qvoc+WUdFOAO?##
?@@PUNFK3nZ2VPqJzYaOOikyMD5IsuB47i0VoAOxWnv9D8BCJ+Mm9NUITFV2nLOVSjnJOW7?##
?@@Hjn1eJYMZCAWP9rV4hIO71rqSeoh8/9/37alqRWaVBvvgQB8LwLVbYMHFzXIFOru+dke?##
?@@6xs/O6x57ZT/X/DouyZH/eDMY3lbd3bvYZMXD/2FgYGvU47K2KruOcZ1ZRQS/cbBqMhu?##
?@@kA120qNv6xq+La622TV/ENmlFRDyy2SyvD7QLjsWo13vR6bFkCxu+VyQR5uXwG+8Lu0q?##
?@@uW2F+W1rMpa4MZQpYubV3gMRGjE4PaMg2LK00dBPp0uldC+D7ZXcpBirkNVjId0052p8?##
?@@+pxeaWrVGsu6Qe8Ua4+q+TuIKdZuulSL0M4kgMPnAis2s8L4cef+ztGZ8G2ILn+Ycnka?##
?@@cxNMz8f25Tn5p1EBP4B0Q9HMrwiBfCzcIkeBzcYDpVmpz30m5APjZRKpafp/TIsFwShQ?##
?@@zBHviPGuYrGzul24uepZn7ICWfjnyPpBChFMK3BKTNexV/U4+WbCAk5YNA/uHQDshPjR?##
?@@oZ+6sCFl/5FOEPDSo/5bhwx3S8bV4U7dWZxDXmgHVqAOgxLE0fhrn7hJjrIYvwBG8INd?##
?@@cgs5d0aXzy7ruDiUstK3rR4H64rr2FzOOFCGNvtrRiNvN6fsiI8G48AQcgGz6pFLrPBr?##
?@@t1xeSKvsC14VB+7lw3o1Ota7CRiKJ8jvttftjNvq5FTInCka83Zx9xk2BLXejFZofYdi?##
?@@CHtR4HHFlEBLYmduwWKaRTPvVGfFBePdgVfR0HrMG/HIi2OIpxo9v1Wal2ddeUTIKa3I?##
?@@Ue/DEjvi8FZnV3iV8/bJF+Fdl0hhzK2DjPhBDM+rz0OP1kUa8lK54vBoNE7qVjMLl+Zs?##
?@@oqjOCJg1tBsnlnkhKd3TSax0vZvx9SbEoWzbdubB/28PCXBucXOdUXHAlS5o48N2QWre?##
?@@jwRjeX/V7eDN/ueUP6aEKxU6GqvvtewWIV3VDhwEu3r27zIp2ChhDyABQ3MF87PDnUdo?##
?@@1FaIS+4pOjGLkpQ0JmE+Lm0RBF1fDSQHiWqL1zcnU1kQx0kdwZ4M8VBIVXzVXRKJMpNK?##
?@@tUs4l37t+zOQICF6X/IAaOs1i9GXW4iBDq0i38ZA1jIWlT1JIu1Sar9X7g5uAQCRf+Ap?##
?@@Xl+7jxeX+veAljFfl6t4NDnoOZzYD8n7yTwAq7nCKoVd3iiGiSQJNRa7jqT8ii2xawB7?##