.SUBCKT Vin plus minus
.PARAMS V=3
Vinput plus minus V
.ENDS Vin

**оболочка подсхемы + название + порты
**Параметры + тупое перечисление параметров через пробел, можно использовать формулы, если необходимо сделать перенос строни, следующую строку начинаем со знака +
**источник напряжения + порты + значение напряжения
