* ADG619 SPICE Macro-model
* Generic Desc: CMOS, ±5 V/+5 V, 4Ohms Single SPDT Switch
* Developed by: MPorley / ADGT
* Revision History: 1.0 (8/2018) - Initial Release
*				  : 2.0 (4/2020) - updated logic control functionality
* Copyright 2018 by Analog Devices, Inc.
*
* Refer to http://www.analog.com/Analog_Root/static/techSupport/designTools/spiceModels/license/spice_general.html for License Statement. Use of this model
* indicates your acceptance of the terms and provisions in the License Statement.
*
* Begin Notes:
* The model will work on Vdd/Vss from 2.7V to 5.5V single supply and +/-2.7V to +/-5.5V dual supply.
* The model provides parametric specifications at +/-5.5V only and is not variable with Vdd and Vss changes. Please see datasheet page 3.
*
* Not Modeled:
* Charge injection is not modelled with same spec as the datasheet due to bandwidth tradeoff.
*
* Parameters modeled include:
*	On Resistance
*	Ton and Toff
*	Break-Before-Make
*	Off Isolation
*	Crosstalk
*	Supply Currents: Iss/Idd
*	Bandwidth
*	Charge Injection
* Connections
*      1  = D1
*      2  = S1
*      3  = GND
*      4  = VDD
*      5  = NC
*      6  = IN1
*      7  = VSS
*      8  = S2
*
.SUBCKT ADG619 1 2 3 4 5 6 7 8

.MODEL VON VSWITCH(Von=5 Voff=0.8 Ron=0.001 Roff=1000000000)
.MODEL VEN VSWITCH(Von=5 Voff=0.8 Ron=140000 Roff=88500)
.MODEL VNE VSWITCH(Von=5 Voff=0.8 Ron=150000 Roff=65000)
.MODEL VRESET VSWITCH(Von=5 Voff=0.8 Ron=2700000 Roff=1000)
.MODEL DCLAMP D(IS=1E-15 IBV=1E-13)


* CROSSTALK
C12X 2 8 1.3E-012

* IDD/ISS
I1 4 3 0.001E-006
I2 7 3 0.001E-006

* Configuration: SPST 2:2


** SWITCH 1 **
*
* ESD PROTECTION DIODES
D11 7 1 DCLAMP
D12 1 4 DCLAMP
D13 7 2 DCLAMP
D14 2 4 DCLAMP
*
* OFF ISOLATION
C11 2 1 1.5E-012
*
* CHARGE INJECTION
C12 1 140 0.1E-012
C13 2 140 0.1E-012
*
* CD/CS OFF AND BANDWIDTH
C14 2 3 1E-012
C15 1 3 50e-012
*
* ON RESISTANCE
Ech155 1555 3 VALUE = { IF ((ABS(V(2)))>(ABS(V(184))),V(2),V(1)) }
R155 1555 3 1G
R11 137 1 0.001
S111 136 141 1141 3 VON
Ech111 1141 3 VALUE = { IF (V(1555)<-3.7,5,0) }
Ech11 141 3 VALUE = { IF (V(1555)<-3.7,5.55555555555554E-02*(V(1555)--3.7)+4.1,0) }
S112 136 146 1146 3 VON
Ech112 1146 3 VALUE = { IF ((V(1555)>=-3.7) & (V(1555)<=4.2),5,0) }
Ech12 146 3 VALUE = { IF ((V(1555)>=-3.7) & (V(1555)<=4.2),((4.1-3.5)/((-3.7-0.097851517422095)*(-3.7-0.097851517422095)))*(V(1555)-0.097851517422095)*(V(1555)-0.097851517422095) + 3.5,0) }
S113 136 144 1144 3 VON
Ech113 1144 3 VALUE = { IF (V(1555)>4.2,5,0) }
Ech13 144 3 VALUE = { IF (V(1555)>4.2,-0.153846153846154*(V(1555)-4.2)+4.2,0) }
RIN1	136 3	1G
EOUT1 137 181	POLY(2) (136,3) (180,3) 0 0 0 0 0.999/1000
FCOPY1	3 180 VSENSE1 1
RSENSOR1 180 3	1K
VSENSE1 181 184	0
*
* TON/ TOFF/ BBM
S11 182 184 140 3 VON
S12 143 138 143 3 VEN
Ech14 143 3 VALUE = { IF(V(6)<2.4, 5 , 0.8 ) }
eV1 140 3 138 3 1
C16 138 3 1e-012
*
* VOLTAGE SUPPLY REQUIREMENT
S13 2 182 185 3 VON
S14 142 185 142 3 VON
Ech15 142 3 VALUE = { IF((V(7)<=-0.5 & V(7)>=-5.5) & (V(4)<=5.5 & V(4)>=2.7), 5 , 0.01 ) }
S15 139 185 139 3 VON
Ech16 139 3 VALUE = { IF((V(7)>=-0.5 & (V(4)<=5.5 & V(4)>=2.7)), 5 , 0.01 ) }


** SWITCH 2 **
*
* ESD PROTECTION DIODES
D23 7 8 DCLAMP
D24 8 4 DCLAMP
*
* OFF ISOLATION
C21 8 1 1.5E-012
*
* CHARGE INJECTION
C23 8 240 0.1E-012
*
* CD/CS OFF AND BANDWIDTH
C24 8 3 1E-012
*
* ON RESISTANCE
Ech255 2555 3 VALUE = { IF ((ABS(V(8)))>(ABS(V(284))),V(8),V(1)) }
R255 2555 3 1G
R21 237 1 0.001
S221 236 241 2241 3 VON
Ech221 2241 3 VALUE = { IF (V(2555)<-3.7,5,0) }
Ech21 241 3 VALUE = { IF (V(2555)<-3.7,5.55555555555554E-02*(V(2555)--3.7)+4.1,0) }
S222 236 246 2246 3 VON
Ech222 2246 3 VALUE = { IF ((V(2555)>=-3.7) & (V(2555)<=4.2),5,0) }
Ech22 246 3 VALUE = { IF ((V(2555)>=-3.7) & (V(2555)<=4.2),((4.1-3.5)/((-3.7-0.097851517422095)*(-3.7-0.097851517422095)))*(V(2555)-0.097851517422095)*(V(2555)-0.097851517422095) + 3.5,0) }
S223 236 244 2244 3 VON
Ech223 2244 3 VALUE = { IF (V(2555)>4.2,5,0) }
Ech23 244 3 VALUE = { IF (V(2555)>4.2,-0.153846153846154*(V(2555)-4.2)+4.2,0) }
RIN2	236 3	1G
EOUT2 237 281	POLY(2) (236,3) (280,3) 0 0 0 0 0.999/1000
FCOPY2	3 280 VSENSE2 1
RSENSOR2 280 3	1K
VSENSE2 281 284	0
*
* TON/ TOFF/ BBM
S21 282 284 240 3 VON
S22 243 238 243 3 VNE
Ech24 243 3 VALUE = { IF(V(6)>=2.4, 5 , 0.8 ) }
eV2 240 3 238 3 1
C26 238 3 1e-012
*
* VOLTAGE SUPPLY REQUIREMENT
S23 8 282 285 3 VON
S24 242 285 242 3 VON
Ech25 242 3 VALUE = { IF((V(7)<=-0.5 & V(7)>=-5.5) & (V(4)<=5.5 & V(4)>=2.7), 5 , 0.01 ) }
S25 239 285 239 3 VON
Ech26 239 3 VALUE = { IF((V(7)>=-0.5 & (V(4)<=5.5 & V(4)>=2.7)), 5 , 0.01 ) }

.ENDS ADG619
