* OP162/OP262/OP462 SPICE Macro-model
* Description: Amplifier
* Generic Desc: 2.7/12V, BIP, OP, S SPLY, RRO, 1X
* Developed by: ADSJ-HH, Troy Murphy / ADSC
* Revision History: 08/10/2012 - Updated to new header style
* 2.0 (07/2011) -  Changed input stage, Add Cin, Inoise, Isc
*   		Adjust Vdo vs. ILoad, Isy vs. Vsy, gain/phase, Zout vs. Freq, PSRR and Large signal.
* 1.0 (07/1996)   
* Copyright 1996, 2011, 2012 by Analog Devices
*
* Refer to http://www.analog.com/Analog_Root/static/techSupport/designTools/spiceModels/license/spice_general.html for License Statement. Use of this model 
* indicates your acceptance of the terms and provisions in the License Statement.
*
* BEGIN Notes:
*
* Not Modeled:
*    
* Parameters modeled include:
*
* END Notes
*
* Node Assignments
*              noninverting input
*              |  inverting input
*              |  |  positive supply
*              |  |  |	 negative supply
*              |	 |  |  |  output
*              |  |  |  |  |
.SUBCKT OP162  1  2 99 50 45
*
*INPUT STAGE
*
Q21a 5a  7 3a PIX 5; 3a; 15a
Q22a 6a  2 4a PIX 5; 4a; 15b
Q21b 5a  7 4c PIX 1; 4c; 15b
Q22b 6a  2 3c PIX 1; 3c; 15a
Ios   1  2 10E-9
I1a  99a 50 25E-6
I1b  99b 50 25E-6
Q5a  15a 99a 99 PCM 1;  
Q6a  99a 99a 99 PCM 1
Q5b  15b 99b 99 PCM 1
Q6b  99b 99b 99 PCM 1
EOS  7  1 POLY(4) (14,20) (73,98) (83,98) (81,98) 250E-6 1 1 1 1;  
RC1 5a 50 6.0E+3
RC2 6a 50 6.0E+3
RE1a  3a 15a 5.362E+1;
RE2a  4c 15b 5.362E+1;
RE1b  3c 15a 5.362E+1;
RE2b  4a 15b 5.362E+1;
C1   15a 15b 10.0E-12
*
Ccm1 1 50 1.85E-12; 3.2p total
Ccm2 2 50 1.85E-12; 3.2p total
Cdm  1  2 4.3E-12; 9.0p total
QD23 1 1 2 PD
QD24 2 2 1 PD
*
* 1st GAIN STAGE
*
G1   10 98 (5a,6a) 2.0E-03
R1   10 98 5.0E+02
*
* POLE, ZERO 
*
G2 21 98 (98,10) 1.176E-03
R4 21 98 8.5E+02
R5 21 22 8.5E+02
C4 22 98 112.42E-12;  62.42E-12
*
* ZERO, POLE 
*
E1  23 98 (21,98) 2
R6  23 24 53E+03
R7  24 98 53E+03
C5  23 24 0.61E-12;  
*
* SECOND GAIN STAGE
*
G3  25 98 (23 ,98) 1.834E-04;  
R8 25 98 1E6;  
D3  25a 98 DX
VD3 25a 25 -2
D4  98 25b DX
VD4 25 25b -2
*
* COMMON-MODE STAGE
*
ECM 13 98 POLY(2) (1,98) (2,98) 0 1.252E-01 1.252E-01
R2  13 14 3.979E+01
R3  14 98 1.989E-02
C3  13 14 1E-06
*
* PSRR NETWORK
*
EPSY 98 72 POLY(1) (99,50) -4.036E-00 4.036E-01
RPS3 72 73 2.274E+04
RPS4 73 98 7.958E+00
CPS3 72 73 1.000E-09
*
*
* VOLTAGE NOISE REFERENCE 
*
VN1 80 98 0
RN1 80 98 2.4E-01
HN  81 98 VN1 9.90E+00
RN2 81 98 1
*
* FLICKER NOISE CORNER
*
DFN 82 98 DNOISE 1000
IFN 98 82 DC 1E-03
DFN2 182 98 DY
IFN2 98 182 DC 1E-06
GFN 83 98 POLY(1) (182,82) 1.00E-13 1.00E-01
RFN 83 98 1
*
* Current Noise 
D60 60 98 DN1 1000
I60 98 60 1E-03
D61 61 98 DN4
I61 98 61 1E-06
G60 1 50 61 60 3.3E-05
G61 2 50 61 60 3.45E-05
*
GSY  99 50 POLY(1) (99,50) 291E-6 +2.3E-06
R9   99 20 500E3
R10  20 50 500E3
EREF 98  0 (20,0) 1
*
* OUTPUT STAGE
*
Q3   45 41 99 POUT 40
Q4   45 43 50 NOUT 20
EB1  99 40 POLY(1) (98,25) 6.7E-01  1;
EB2  42 50 POLY(1) (25,98) 6.8E-01  1;
RB1  40 41 5E3
RB2  42 43 5E3
Eflip 125a,98 (45,98) 1
RZ  125a 125b 5E+01
CF   125b 25 8.4E-12
D5   46 99 DX
D6   47 43 DX
V3   46 41 0.7
V4   47 50 0.7
*
.MODEL PIX PNP (Bf=100, VAF=28, TF=6E-11, CJE=0.5E-12, CJC=0.45E-12)
.MODEL PD  NPN (Bf=100, IS=1E-18, VAF=100, RC=1500, TF=5E-11)
.MODEL PCM PNP (Bf=30, VAF=25, RC=100, TF=6E-11)
.MODEL POUT PNP (BF=90, IS=2.782E-17,VAF=25,KF=3E-17,RE=2,RC=240,TF=6E-11)
.MODEL NOUT NPN (BF=120, IS=1.786E-17,VAF=100,KF=3E-17,RE=2,RC=270,TF=4E-11)
.MODEL DN1 D IS=1E-16
.MODEL DN4 D IS=1E-16 AF=1 KF=6.35E-17
.MODEL DX D()
.MODEL DY D(IS=1E-16,RS=1E-1)
.MODEL DNOISE D(IS=1E-16,RS=1E-01,KF=1.42E-12)
.ENDS OP162





