*----------------------------------------------------------------------
* SPICE Model generated by Murata Manufacturing Co., Ltd.
* Copyright(C) Murata Manufacturing Co., Ltd.
* Description :3216M/1206/27[uF]/6.3[V]/6.0[A]
* Murata P/N :NFM31PC276B0J3
* Connection : feedthrough
* Property : C = 27[uF]
* Data Generated on Aug 1, 2018
* Term1:THRU1, Term2:GND1, Term3:THRU2, Term4:GND2
* 
*                Term2
*         +--+---+--+---+--+
*         |  |   +--+   |  |
*   Term1 |  |          |  | Term3
*         |  |   +--+   |  |
*         +--+---+--+---+--+
*                Term4
*
*----------------------------------------------------------------------
* Applicable Conditions:
*   Frequency Range = 100.0kHz-6.0GHz
*   Temperature = 25degC
*   DC Bias Voltage = 0V
*   Small Signal Operation
*----------------------------------------------------------------------
.SUBCKT NFM31PC276B0J3_DC0V_25degC Term1  Term2  Term3  Term4
C1L Term1 12 5.00e-6
L1L 12 13 4.74e-10
R1L 13 14 5.00e-3
C3 31 32 1.05e-6
L3 32 33 6.20e-11
R3 33 14 4.70e-2
C2L 31 52 2.47e-6
L2L 52 53 7.80e-11
R2L 53 Term2 1.00e-2
C2R 31 72 2.47e-6
L2R 72 73 7.80e-11
R2R 73 Term4 1.00e-2
C1R Term3 92 5.00e-6
L1R 92 93 4.74e-10
R1R 93 14 5.00e-3
Rt1L Term1 21 5.00e-4
Lt1L 21 31 8.30e-11
Rt1R 31 41 5.00e-4
Lt1R 41 Term3 8.30e-11
Rg1L Term2 61 5.00e-4
Lg1L 61 14 10.0e-13
Rg1R 14 81 5.00e-4
Lg1R 81 Term4 10.0e-13
.ENDS NFM31PC276B0J3_DC0V_25degC
*----------------------------------------------------------------------
